*HEADING
3D DCB mode-I reference model, mesh generated by diffcohesive/mesh/specimens.py
**
*NODE
1, 0.0000000000, 0.0000000000, 0.0000000000
2, 2.0000000000, 0.0000000000, 0.0000000000
3, 4.0000000000, 0.0000000000, 0.0000000000
4, 6.0000000000, 0.0000000000, 0.0000000000
5, 8.0000000000, 0.0000000000, 0.0000000000
6, 10.0000000000, 0.0000000000, 0.0000000000
7, 12.0000000000, 0.0000000000, 0.0000000000
8, 14.0000000000, 0.0000000000, 0.0000000000
9, 16.0000000000, 0.0000000000, 0.0000000000
10, 18.0000000000, 0.0000000000, 0.0000000000
11, 20.0000000000, 0.0000000000, 0.0000000000
12, 22.0000000000, 0.0000000000, 0.0000000000
13, 24.0000000000, 0.0000000000, 0.0000000000
14, 26.0000000000, 0.0000000000, 0.0000000000
15, 28.0000000000, 0.0000000000, 0.0000000000
16, 30.0000000000, 0.0000000000, 0.0000000000
17, 32.0000000000, 0.0000000000, 0.0000000000
18, 34.0000000000, 0.0000000000, 0.0000000000
19, 36.0000000000, 0.0000000000, 0.0000000000
20, 38.0000000000, 0.0000000000, 0.0000000000
** ... 538 like lines cut
**
*ELEMENT, TYPE=C3D8, ELSET=ARMS
1, 1, 2, 33, 32, 156, 157, 188, 187
2, 2, 3, 34, 33, 157, 158, 189, 188
3, 3, 4, 35, 34, 158, 159, 190, 189
4, 4, 5, 36, 35, 159, 160, 191, 190
5, 5, 6, 37, 36, 160, 161, 192, 191
6, 6, 7, 38, 37, 161, 162, 193, 192
7, 7, 8, 39, 38, 162, 163, 194, 193
8, 8, 9, 40, 39, 163, 164, 195, 194
9, 9, 10, 41, 40, 164, 165, 196, 195
10, 10, 11, 42, 41, 165, 166, 197, 196
11, 11, 12, 43, 42, 166, 167, 198, 197
12, 12, 13, 44, 43, 167, 168, 199, 198
13, 13, 14, 45, 44, 168, 169, 200, 199
14, 14, 15, 46, 45, 169, 170, 201, 200
15, 15, 16, 47, 46, 170, 171, 202, 201
16, 16, 17, 48, 47, 171, 172, 203, 202
17, 17, 18, 49, 48, 172, 173, 204, 203
18, 18, 19, 50, 49, 173, 174, 205, 204
19, 19, 20, 51, 50, 174, 175, 206, 205
20, 20, 21, 52, 51, 175, 176, 207, 206
** ... 220 like lines cut
**
*ELEMENT, TYPE=COH3D8, ELSET=COHESIVE
241, 73, 228, 229, 74, 476, 507, 508, 477
242, 74, 229, 230, 75, 477, 508, 509, 478
243, 75, 230, 231, 76, 478, 509, 510, 479
244, 76, 231, 232, 77, 479, 510, 511, 480
245, 77, 232, 233, 78, 480, 511, 512, 481
246, 78, 233, 234, 79, 481, 512, 513, 482
247, 79, 234, 235, 80, 482, 513, 514, 483
248, 80, 235, 236, 81, 483, 514, 515, 484
249, 81, 236, 237, 82, 484, 515, 516, 485
250, 82, 237, 238, 83, 485, 516, 517, 486
251, 83, 238, 239, 84, 486, 517, 518, 487
252, 84, 239, 240, 85, 487, 518, 519, 488
253, 85, 240, 241, 86, 488, 519, 520, 489
254, 86, 241, 242, 87, 489, 520, 521, 490
255, 87, 242, 243, 88, 490, 521, 522, 491
256, 88, 243, 244, 89, 491, 522, 523, 492
257, 89, 244, 245, 90, 492, 523, 524, 493
258, 90, 245, 246, 91, 493, 524, 525, 494
259, 91, 246, 247, 92, 494, 525, 526, 495
260, 92, 247, 248, 93, 495, 526, 527, 496
** ... 20 like lines cut
**
*SOLID SECTION, ELSET=ARMS, MATERIAL=ARM_MAT
,
*COHESIVE SECTION, ELSET=COHESIVE, MATERIAL=COH_MAT, RESPONSE=TRACTION SEPARATION, THICKNESS=SPECIFIED
1.0
**
*MATERIAL, NAME=ARM_MAT
*ELASTIC
70000.0, 0.3
**
*MATERIAL, NAME=COH_MAT
*ELASTIC, TYPE=TRACTION
10000.0, 10000.0, 10000.0
*DAMAGE INITIATION, CRITERION=QUADS
30.0, 30.0, 30.0
*DAMAGE EVOLUTION, TYPE=ENERGY, MIXED MODE BEHAVIOR=BK, SOFTENING=LINEAR, POWER=1.0
0.5, 0.5, 0.5
**
*NSET, NSET=RIGHT_FACE
31, 62, 93, 124, 155, 186, 217, 248, 279, 310, 341, 372
403, 434, 465, 496, 527, 558
*NSET, NSET=TIP_TOP
125, 280, 435
*NSET, NSET=TIP_BOTTOM
1, 156, 311
**
*STEP, NAME=OPEN, NLGEOM=NO, INC=2000
*STATIC
0.010000, 2.500000, 1e-10, 0.100000
*BOUNDARY
RIGHT_FACE, 1, 3, 0.0
TIP_TOP, 2, 2, 1.250000
TIP_BOTTOM, 2, 2, -1.250000
*OUTPUT, FIELD, FREQUENCY=5
*NODE OUTPUT
U, RF
*ELEMENT OUTPUT, ELSET=COHESIVE
SDEG
*OUTPUT, HISTORY, FREQUENCY=1
*NODE OUTPUT, NSET=TIP_TOP
U2, RF2
*NODE OUTPUT, NSET=TIP_BOTTOM
U2, RF2
*END STEP
