*HEADING
DCB mode-I reference model, mesh generated by diffcohesive/mesh/specimens.py
**
*NODE
1, 0.0000000000, 0.0000000000
2, 0.5000000000, 0.0000000000
3, 1.0000000000, 0.0000000000
4, 1.5000000000, 0.0000000000
5, 2.0000000000, 0.0000000000
6, 2.5000000000, 0.0000000000
7, 3.0000000000, 0.0000000000
8, 3.5000000000, 0.0000000000
9, 4.0000000000, 0.0000000000
10, 4.5000000000, 0.0000000000
11, 5.0000000000, 0.0000000000
12, 5.5000000000, 0.0000000000
13, 6.0000000000, 0.0000000000
14, 6.5000000000, 0.0000000000
15, 7.0000000000, 0.0000000000
16, 7.5000000000, 0.0000000000
17, 8.0000000000, 0.0000000000
18, 8.5000000000, 0.0000000000
19, 9.0000000000, 0.0000000000
20, 9.5000000000, 0.0000000000
** ... 290 like lines cut
**
*ELEMENT, TYPE=CPE3, ELSET=ARMS
1, 1, 2, 33
2, 1, 33, 32
3, 2, 3, 34
4, 2, 34, 33
5, 3, 4, 35
6, 3, 35, 34
7, 4, 5, 36
8, 4, 36, 35
9, 5, 6, 37
10, 5, 37, 36
11, 6, 7, 38
12, 6, 38, 37
13, 7, 8, 39
14, 7, 39, 38
15, 8, 9, 40
16, 8, 40, 39
17, 9, 10, 41
18, 9, 41, 40
19, 10, 11, 42
20, 10, 42, 41
** ... 460 like lines cut
**
*ELEMENT, TYPE=COH2D4, ELSET=COHESIVE
481, 135, 136, 291, 290
482, 136, 137, 292, 291
483, 137, 138, 293, 292
484, 138, 139, 294, 293
485, 139, 140, 295, 294
486, 140, 141, 296, 295
487, 141, 142, 297, 296
488, 142, 143, 298, 297
489, 143, 144, 299, 298
490, 144, 145, 300, 299
491, 145, 146, 301, 300
492, 146, 147, 302, 301
493, 147, 148, 303, 302
494, 148, 149, 304, 303
495, 149, 150, 305, 304
496, 150, 151, 306, 305
497, 151, 152, 307, 306
498, 152, 153, 308, 307
499, 153, 154, 309, 308
500, 154, 155, 310, 309
**
*SOLID SECTION, ELSET=ARMS, MATERIAL=ARM_MAT
1.0
*COHESIVE SECTION, ELSET=COHESIVE, MATERIAL=COH_MAT, RESPONSE=TRACTION SEPARATION, THICKNESS=SPECIFIED
1.0
**
*MATERIAL, NAME=ARM_MAT
*ELASTIC
1000.0, 0.3
**
*MATERIAL, NAME=COH_MAT
*ELASTIC, TYPE=TRACTION
10000.0, 10000.0, 10000.0
*DAMAGE INITIATION, CRITERION=QUADS
5.0, 5.0, 5.0
*DAMAGE EVOLUTION, TYPE=ENERGY, MIXED MODE BEHAVIOR=BK, SOFTENING=LINEAR, POWER=1.0
0.05, 0.05, 0.05
**
*NSET, NSET=RIGHT_EDGE
31, 62, 93, 124, 155, 186, 217, 248, 279, 310
*NSET, NSET=TIP_TOP
249
*NSET, NSET=TIP_BOTTOM
1
**
*STEP, NAME=OPEN, NLGEOM=NO, INC=1000
*STATIC
0.003000, 0.600000, 1e-08, 0.030000
*BOUNDARY
RIGHT_EDGE, 1, 2, 0.0
TIP_TOP, 2, 2, 0.300000
TIP_BOTTOM, 2, 2, -0.300000
*OUTPUT, FIELD, FREQUENCY=1
*NODE OUTPUT
U, RF
*ELEMENT OUTPUT, ELSET=COHESIVE
SDEG, DMICRT
*OUTPUT, HISTORY, FREQUENCY=1
*NODE OUTPUT, NSET=TIP_TOP
U2, RF2
*NODE OUTPUT, NSET=TIP_BOTTOM
U2, RF2
*END STEP
